New "Line.sw12" phases=3 bus1=104.1.2.3 bus2=114.1.2.3 Switch=True
