New "Transformer.subxfmr" phases=3 windings=2 Xhl=10.63 buses=[sourcebus, subxfmr_lsb, ] conns=[delta, wye, ] kVs=[230, 34.5, ] kVAs=[45000, 45000, ] taps=[1, 1.0125, ] wdg=1 %R=0.12 wdg=2 %R=0.12 MinTap=0.9 MaxTap=1.1 sub=yes %noloadloss=0.18 %Rs=[0.12, 0.12, ] emerghkVA=75000
