New "Line.sw13" phases=3 bus1=41.1.2.3 bus2=66.1.2.3 Switch=True
