New "Line.sw15" phases=3 bus1=6.1.2.3 bus2=15.1.2.3 Switch=True
