New "Line.sw8" r1=1 r0=1 x1=1 x0=1 C1=1.1 C0=1 length=0.001 phases=3 Switch=True bus1=uno.1.2.3 bus2=dos.1.2.3
New "Line.sw9" phases=3 bus1=151.1.2.3 bus2=250.1.2.3 Switch=True
New "Line.sw10" phases=3 bus1=64.1.2.3 bus2=300.1.2.3 Switch=True
