New "Transformer.05410_g2000ff4400" phases=1 buses=[n283602.1, g2000ff4400_n283602_sec.1, ] conns=[wye, wye, ] kVs=[19.91858, 0.24, ] kVAs=[10, 10, ] taps=[1, 1, ] wdg=1 %R=0.7 wdg=2 %R=0.7 %imag=0.5 %loadloss=1.4 %noloadloss=0.325 Xhl=1.575
New "Transformer.05410_g2000vh4000" phases=1 buses=[n283609.2, g2000vh4000_n283609_sec.2, ] conns=[wye, wye, ] kVs=[19.91858, 0.24, ] kVAs=[15, 15, ] taps=[1, 1, ] wdg=1 %R=0.7466667 wdg=2 %R=0.7466667 %imag=0.5 %loadloss=1.493333 %noloadloss=0.2733333 Xhl=2.18
New "Transformer.05410_g2000vh9100" phases=1 buses=[n283615.3, g2000vh9100_n283615_sec.3, ] conns=[wye, wye, ] kVs=[19.91858, 0.24, ] kVAs=[15, 15, ] taps=[1, 1, ] wdg=1 %R=0.7466667 wdg=2 %R=0.7466667 %imag=0.5 %loadloss=1.493333 %noloadloss=0.2733333 Xhl=2.18
New "Transformer.05410_g2000wh5900" phases=1 buses=[n283675.2, g2000wh5900_n283675_sec.2, ] conns=[wye, wye, ] kVs=[19.91858, 0.24, ] kVAs=[50, 50, ] taps=[1, 1, ] wdg=1 %R=0.4385 wdg=2 %R=0.4385 %imag=0.5 %loadloss=0.877 %noloadloss=0.181 Xhl=2.025
New "Transformer.05410_g2000vh9500" phases=1 buses=[n283675.2, g2000vh9500_n283675_sec.2, ] conns=[wye, wye, ] kVs=[19.91858, 0.24, ] kVAs=[167, 167, ] taps=[1, 1, ] wdg=1 %R=0.4167665 wdg=2 %R=0.4167665 %imag=0.5 %loadloss=0.8335329 %noloadloss=0.161976 Xhl=2.355
New "Transformer.05410_g2000wi4400" phases=1 buses=[n283710.2, g2000wi4400_n283710_sec.2, ] conns=[wye, wye, ] kVs=[19.91858, 0.24, ] kVAs=[100, 100, ] taps=[1, 1, ] wdg=1 %R=0.67875 wdg=2 %R=0.67875 %imag=0.5 %loadloss=1.3575 %noloadloss=0.131 Xhl=3.29
New "Transformer.05410_g2000vi6200" phases=1 buses=[n283684.2, g2000vi6200_n283684_sec.2, ] conns=[wye, wye, ] kVs=[19.91858, 0.24, ] kVAs=[167, 167, ] taps=[1, 1, ] wdg=1 %R=0.4167665 wdg=2 %R=0.4167665 %imag=0.5 %loadloss=0.8335329 %noloadloss=0.161976 Xhl=2.355
New "Transformer.05410_g2000vj0200" phases=1 buses=[n283716.2, g2000vj0200_n283716_sec.2, ] conns=[wye, wye, ] kVs=[19.91858, 0.24, ] kVAs=[100, 100, ] taps=[1, 1, ] wdg=1 %R=0.67875 wdg=2 %R=0.67875 %imag=0.5 %loadloss=1.3575 %noloadloss=0.131 Xhl=3.29
New "Transformer.05410_g2000uj3600" phases=1 buses=[n283731.2, g2000uj3600_n283731_sec.2, ] conns=[wye, wye, ] kVs=[19.91858, 0.24, ] kVAs=[100, 100, ] taps=[1, 1, ] wdg=1 %R=0.67875 wdg=2 %R=0.67875 %imag=0.5 %loadloss=1.3575 %noloadloss=0.131 Xhl=3.29
New "Transformer.05410_g2000uj6500" phases=1 buses=[n283747.2, g2000uj6500_n283747_sec.2, ] conns=[wye, wye, ] kVs=[19.91858, 0.24, ] kVAs=[100, 100, ] taps=[1, 1, ] wdg=1 %R=0.67875 wdg=2 %R=0.67875 %imag=0.5 %loadloss=1.3575 %noloadloss=0.131 Xhl=3.29
New "Transformer.05410_g2000ul3200" phases=1 buses=[n283772.2, g2000ul3200_n283772_sec.2, ] conns=[wye, wye, ] kVs=[19.91858, 0.24, ] kVAs=[100, 100, ] taps=[1, 1, ] wdg=1 %R=0.67875 wdg=2 %R=0.67875 %imag=0.5 %loadloss=1.3575 %noloadloss=0.131 Xhl=3.29
New "Transformer.05410_g2000uh9400" phases=1 buses=[n283633.3, g2000uh9400_n283633_sec.3, ] conns=[wye, wye, ] kVs=[19.91858, 0.24, ] kVAs=[25, 25, ] taps=[1, 1, ] wdg=1 %R=0.633 wdg=2 %R=0.633 %imag=0.5 %loadloss=1.266 %noloadloss=0.248 Xhl=1.835
New "Transformer.05410_g2000ui5400" phases=1 buses=[n283699.3, g2000ui5400_n283699_sec.3, ] conns=[wye, wye, ] kVs=[19.91858, 0.24, ] kVAs=[100, 100, ] taps=[1, 1, ] wdg=1 %R=0.67875 wdg=2 %R=0.67875 %imag=0.5 %loadloss=1.3575 %noloadloss=0.131 Xhl=3.29
New "Transformer.05410_g2000uk1100" phases=1 buses=[n283753.3, g2000uk1100_n283753_sec.3, ] conns=[wye, wye, ] kVs=[19.91858, 0.24, ] kVAs=[50, 50, ] taps=[1, 1, ] wdg=1 %R=0.4385 wdg=2 %R=0.4385 %imag=0.5 %loadloss=0.877 %noloadloss=0.181 Xhl=2.025
New "Transformer.05410_g2000tj2700" phases=1 buses=[n274103.3, g2000tj2700_n274103_sec.3, ] conns=[wye, wye, ] kVs=[19.91858, 0.24, ] kVAs=[50, 50, ] taps=[1, 1, ] wdg=1 %R=0.4385 wdg=2 %R=0.4385 %imag=0.5 %loadloss=0.877 %noloadloss=0.181 Xhl=2.025
New "Transformer.05410_g2000uj0800" phases=1 buses=[n283722.3, g2000uj0800_n283722_sec.3, ] conns=[wye, wye, ] kVs=[19.91858, 0.24, ] kVAs=[50, 50, ] taps=[1, 1, ] wdg=1 %R=0.4385 wdg=2 %R=0.4385 %imag=0.5 %loadloss=0.877 %noloadloss=0.181 Xhl=2.025
New "Transformer.05410_g2000ui3100" phases=1 buses=[n283702.3, g2000ui3100_n283702_sec.3, ] conns=[wye, wye, ] kVs=[19.91858, 0.24, ] kVAs=[50, 50, ] taps=[1, 1, ] wdg=1 %R=0.4385 wdg=2 %R=0.4385 %imag=0.5 %loadloss=0.877 %noloadloss=0.181 Xhl=2.025
New "Transformer.05410_g2000ui6400" phases=1 buses=[n283679.3, g2000ui6400_n283679_sec.3, ] conns=[wye, wye, ] kVs=[19.91858, 0.24, ] kVAs=[50, 50, ] taps=[1, 1, ] wdg=1 %R=0.4385 wdg=2 %R=0.4385 %imag=0.5 %loadloss=0.877 %noloadloss=0.181 Xhl=2.025
New "Transformer.05410_g2000uh9800" phases=1 buses=[n283647.3, g2000uh9800_n283647_sec.3, ] conns=[wye, wye, ] kVs=[19.91858, 0.24, ] kVAs=[50, 50, ] taps=[1, 1, ] wdg=1 %R=0.4385 wdg=2 %R=0.4385 %imag=0.5 %loadloss=0.877 %noloadloss=0.181 Xhl=2.025
New "Transformer.05410_g2000xh4000" phases=1 buses=[n283639.3, g2000xh4000_n283639_sec.3, ] conns=[wye, wye, ] kVs=[19.91858, 0.24, ] kVAs=[15, 15, ] taps=[1, 1, ] wdg=1 %R=0.7466667 wdg=2 %R=0.7466667 %imag=0.5 %loadloss=1.493333 %noloadloss=0.2733333 Xhl=2.18
New "Transformer.05410_g2100bi0400" phases=1 buses=[n283682.1, g2100bi0400_n283682_sec.1, ] conns=[wye, wye, ] kVs=[19.91858, 0.24, ] kVAs=[15, 15, ] taps=[1, 1, ] wdg=1 %R=0.7466667 wdg=2 %R=0.7466667 %imag=0.5 %loadloss=1.493333 %noloadloss=0.2733333 Xhl=2.18
New "Transformer.step_05410_g2100ci3100" phases=1 buses=[n1386727.3, n1386727_lo.3, ] conns=[wye, wye, ] kVs=[19.92, 7.62, ] kVAs=[1000, 1000, ] taps=[1, 1, ] wdg=1 %R=0.4075 wdg=2 %R=0.4075 Xhl=3.72 %Rs=[0.4075, 0.4075, ] %noloadloss=0.0424 sub=no
New "Transformer.05410_g2100ch1800" phases=1 buses=[n1385522.3, g2100ch1800_n1385522_sec.3, ] conns=[wye, wye, ] kVs=[7.621024, 0.24, ] kVAs=[100, 100, ] taps=[1, 1, ] wdg=1 %R=0.67875 wdg=2 %R=0.67875 %imag=0.5 %loadloss=1.3575 %noloadloss=0.131 Xhl=3.29
New "Transformer.05410_g2100bh3900" phases=1 buses=[n283665.3, g2100bh3900_n283665_sec.3, ] conns=[wye, wye, ] kVs=[7.621024, 0.24, ] kVAs=[100, 100, ] taps=[1, 1, ] wdg=1 %R=0.67875 wdg=2 %R=0.67875 %imag=0.5 %loadloss=1.3575 %noloadloss=0.131 Xhl=3.29
New "Transformer.05410_g2100ah6800" phases=1 buses=[n283651.3, g2100ah6800_n283651_sec.3, ] conns=[wye, wye, ] kVs=[7.621024, 0.24, ] kVAs=[100, 100, ] taps=[1, 1, ] wdg=1 %R=0.67875 wdg=2 %R=0.67875 %imag=0.5 %loadloss=1.3575 %noloadloss=0.131 Xhl=3.29
New "Transformer.05410_g2000xh7500" phases=1 buses=[n283636.3, g2000xh7500_n283636_sec.3, ] conns=[wye, wye, ] kVs=[7.621024, 0.24, ] kVAs=[50, 50, ] taps=[1, 1, ] wdg=1 %R=0.4385 wdg=2 %R=0.4385 %imag=0.5 %loadloss=0.877 %noloadloss=0.181 Xhl=2.025
New "Transformer.05410_g2000xg5800" phases=1 buses=[n283612.3, g2000xg5800_n283612_sec.3, ] conns=[wye, wye, ] kVs=[7.621024, 0.24, ] kVAs=[50, 50, ] taps=[1, 1, ] wdg=1 %R=0.4385 wdg=2 %R=0.4385 %imag=0.5 %loadloss=0.877 %noloadloss=0.181 Xhl=2.025
New "Transformer.05410_g2000xf7700" phases=1 buses=[n283582.3, g2000xf7700_n283582_sec.3, ] conns=[wye, wye, ] kVs=[7.621024, 0.24, ] kVAs=[50, 50, ] taps=[1, 1, ] wdg=1 %R=0.4385 wdg=2 %R=0.4385 %imag=0.5 %loadloss=0.877 %noloadloss=0.181 Xhl=2.025
New "Transformer.05410_g2000xe9500" phases=1 buses=[n283544.3, g2000xe9500_n283544_sec.3, ] conns=[wye, wye, ] kVs=[7.621024, 0.24, ] kVAs=[100, 100, ] taps=[1, 1, ] wdg=1 %R=0.67875 wdg=2 %R=0.67875 %imag=0.5 %loadloss=1.3575 %noloadloss=0.131 Xhl=3.29
New "Transformer.step_05410_g2100ci5100" phases=1 buses=[n1386726.3, n1386726_lo.3, ] conns=[wye, wye, ] kVs=[19.92, 7.62, ] kVAs=[1000, 1000, ] taps=[1, 1, ] wdg=1 %R=0.4075 wdg=2 %R=0.4075 Xhl=3.72 %Rs=[0.4075, 0.4075, ] %noloadloss=0.0424 sub=no
New "Transformer.05410_g2100ah8200" phases=1 buses=[n283618.3, g2100ah8200_n283618_sec.3, ] conns=[wye, wye, ] kVs=[7.621024, 0.24, ] kVAs=[100, 100, ] taps=[1, 1, ] wdg=1 %R=0.67875 wdg=2 %R=0.67875 %imag=0.5 %loadloss=1.3575 %noloadloss=0.131 Xhl=3.29
New "Transformer.05410_g2100ah2000" phases=1 buses=[n283617.3, g2100ah2000_n283617_sec.3, ] conns=[wye, wye, ] kVs=[7.621024, 0.24, ] kVAs=[100, 100, ] taps=[1, 1, ] wdg=1 %R=0.67875 wdg=2 %R=0.67875 %imag=0.5 %loadloss=1.3575 %noloadloss=0.131 Xhl=3.29
New "Transformer.05410_g2100ag2100" phases=1 buses=[n283585.3, g2100ag2100_n283585_sec.3, ] conns=[wye, wye, ] kVs=[7.621024, 0.24, ] kVAs=[100, 100, ] taps=[1, 1, ] wdg=1 %R=0.67875 wdg=2 %R=0.67875 %imag=0.5 %loadloss=1.3575 %noloadloss=0.131 Xhl=3.29
New "Transformer.05410_g2100ae4800" phases=1 buses=[n283558.3, g2100ae4800_n283558_sec.3, ] conns=[wye, wye, ] kVs=[7.621024, 0.24, ] kVAs=[100, 100, ] taps=[1, 1, ] wdg=1 %R=0.67875 wdg=2 %R=0.67875 %imag=0.5 %loadloss=1.3575 %noloadloss=0.131 Xhl=3.29
New "Transformer.05410_g2100ae9900" phases=1 buses=[n283556.3, g2100ae9900_n283556_sec.3, ] conns=[wye, wye, ] kVs=[7.621024, 0.24, ] kVAs=[100, 100, ] taps=[1, 1, ] wdg=1 %R=0.67875 wdg=2 %R=0.67875 %imag=0.5 %loadloss=1.3575 %noloadloss=0.131 Xhl=3.29
New "Transformer.05410_g2100af5900" phases=1 buses=[n283577.3, g2100af5900_n283577_sec.3, ] conns=[wye, wye, ] kVs=[7.621024, 0.24, ] kVAs=[100, 100, ] taps=[1, 1, ] wdg=1 %R=0.67875 wdg=2 %R=0.67875 %imag=0.5 %loadloss=1.3575 %noloadloss=0.131 Xhl=3.29
New "Transformer.05410_g2100ag8700" phases=1 buses=[n283594.3, g2100ag8700_n283594_sec.3, ] conns=[wye, wye, ] kVs=[7.621024, 0.24, ] kVAs=[100, 100, ] taps=[1, 1, ] wdg=1 %R=0.67875 wdg=2 %R=0.67875 %imag=0.5 %loadloss=1.3575 %noloadloss=0.131 Xhl=3.29
New "Transformer.05410_g2100bg5600" phases=1 buses=[n283598.3, g2100bg5600_n283598_sec.3, ] conns=[wye, wye, ] kVs=[7.621024, 0.24, ] kVAs=[100, 100, ] taps=[1, 1, ] wdg=1 %R=0.67875 wdg=2 %R=0.67875 %imag=0.5 %loadloss=1.3575 %noloadloss=0.131 Xhl=3.29
New "Transformer.05410_g2100bh6100" phases=1 buses=[n283623.3, g2100bh6100_n283623_sec.3, ] conns=[wye, wye, ] kVs=[7.621024, 0.24, ] kVAs=[100, 100, ] taps=[1, 1, ] wdg=1 %R=0.67875 wdg=2 %R=0.67875 %imag=0.5 %loadloss=1.3575 %noloadloss=0.131 Xhl=3.29
New "Transformer.05410_g2100ch7400" phases=1 buses=[n283632.3, g2100ch7400_n283632_sec.3, ] conns=[wye, wye, ] kVs=[7.621024, 0.24, ] kVAs=[167, 167, ] taps=[1, 1, ] wdg=1 %R=0.4167665 wdg=2 %R=0.4167665 %imag=0.5 %loadloss=0.8335329 %noloadloss=0.161976 Xhl=2.355
New "Transformer.05410_g2100cg0300" phases=1 buses=[n283590.3, g2100cg0300_n283590_sec.3, ] conns=[wye, wye, ] kVs=[7.621024, 0.24, ] kVAs=[167, 167, ] taps=[1, 1, ] wdg=1 %R=0.4167665 wdg=2 %R=0.4167665 %imag=0.5 %loadloss=0.8335329 %noloadloss=0.161976 Xhl=2.355
New "Transformer.05410_g2100be8900" phases=1 buses=[n283564.3, g2100be8900_n283564_sec.3, ] conns=[wye, wye, ] kVs=[7.621024, 0.24, ] kVAs=[50, 50, ] taps=[1, 1, ] wdg=1 %R=0.4385 wdg=2 %R=0.4385 %imag=0.5 %loadloss=0.877 %noloadloss=0.181 Xhl=2.025
New "Transformer.05410_g2100ad9900" phases=1 buses=[n283564.3, g2100ad9900_n283564_sec.3, ] conns=[wye, wye, ] kVs=[7.621024, 0.24, ] kVAs=[100, 100, ] taps=[1, 1, ] wdg=1 %R=0.67875 wdg=2 %R=0.67875 %imag=0.5 %loadloss=1.3575 %noloadloss=0.131 Xhl=3.29
New "Transformer.05410_g2000ye2100" phases=1 buses=[n283532.3, g2000ye2100_n283532_sec.3, ] conns=[wye, wye, ] kVs=[7.621024, 0.24, ] kVAs=[25, 25, ] taps=[1, 1, ] wdg=1 %R=0.633 wdg=2 %R=0.633 %imag=0.5 %loadloss=1.266 %noloadloss=0.248 Xhl=1.835
New "Transformer.05410_g2100dh7600" phases=1 buses=[n283641.2, g2100dh7600_n283641_sec.2, ] conns=[wye, wye, ] kVs=[19.91858, 0.24, ] kVAs=[15, 15, ] taps=[1, 1, ] wdg=1 %R=0.7466667 wdg=2 %R=0.7466667 %imag=0.5 %loadloss=1.493333 %noloadloss=0.2733333 Xhl=2.18
New "Transformer.05410_g2100dh9500" phases=1 buses=[n292300.3, g2100dh9500_n292300_sec.3, ] conns=[wye, wye, ] kVs=[19.91858, 0.24, ] kVAs=[50, 50, ] taps=[1, 1, ] wdg=1 %R=0.567 wdg=2 %R=0.567 %imag=0.5 %loadloss=1.134 %noloadloss=0.181 Xhl=1.965
New "Transformer.05410_g2100eh3700" phases=1 buses=[n292308.1, g2100eh3700_n292308_sec.1, ] conns=[wye, wye, ] kVs=[19.91858, 0.24, ] kVAs=[100, 100, ] taps=[1, 1, ] wdg=1 %R=0.67875 wdg=2 %R=0.67875 %imag=0.5 %loadloss=1.3575 %noloadloss=0.131 Xhl=3.29
New "Transformer.05410_g2100eh3200" phases=1 buses=[n292286.2, g2100eh3200_n292286_sec.2, ] conns=[wye, wye, ] kVs=[19.91858, 0.24, ] kVAs=[50, 50, ] taps=[1, 1, ] wdg=1 %R=0.567 wdg=2 %R=0.567 %imag=0.5 %loadloss=1.134 %noloadloss=0.181 Xhl=1.965
New "Transformer.05410_g2100eg8500" phases=1 buses=[n292275.3, g2100eg8500_n292275_sec.3, ] conns=[wye, wye, ] kVs=[19.91858, 0.24, ] kVAs=[50, 50, ] taps=[1, 1, ] wdg=1 %R=0.4385 wdg=2 %R=0.4385 %imag=0.5 %loadloss=0.877 %noloadloss=0.181 Xhl=2.025
New "Transformer.05410_g2100dg3700" phases=1 buses=[n283614.3, g2100dg3700_n283614_sec.3, ] conns=[wye, wye, ] kVs=[19.91858, 0.24, ] kVAs=[100, 100, ] taps=[1, 1, ] wdg=1 %R=0.67875 wdg=2 %R=0.67875 %imag=0.5 %loadloss=1.3575 %noloadloss=0.131 Xhl=3.29
New "Transformer.05410_g2100dg6300" phases=1 buses=[n283589.3, g2100dg6300_n283589_sec.3, ] conns=[wye, wye, ] kVs=[19.91858, 0.24, ] kVAs=[50, 50, ] taps=[1, 1, ] wdg=1 %R=0.4385 wdg=2 %R=0.4385 %imag=0.5 %loadloss=0.877 %noloadloss=0.181 Xhl=2.025
New "Transformer.05410_g2100dg1300" phases=1 buses=[n283601.3, g2100dg1300_n283601_sec.3, ] conns=[wye, wye, ] kVs=[19.91858, 0.24, ] kVAs=[50, 50, ] taps=[1, 1, ] wdg=1 %R=0.4385 wdg=2 %R=0.4385 %imag=0.5 %loadloss=0.877 %noloadloss=0.181 Xhl=2.025
New "Transformer.05410_g2100fh2300" phases=1 buses=[n292269.3, g2100fh2300_n292269_sec.3, ] conns=[wye, wye, ] kVs=[19.91858, 0.24, ] kVAs=[15, 15, ] taps=[1, 1, ] wdg=1 %R=0.7466667 wdg=2 %R=0.7466667 %imag=0.5 %loadloss=1.493333 %noloadloss=0.2733333 Xhl=2.18
New "Transformer.05410_g2100gf5300" phases=3 buses=[n292267.1.2.3, g2100gf5300_n292267_sec.1.2.3, ] conns=[wye, wye, ] kVs=[34.5, 0.48, ] kVAs=[150, 150, ] taps=[1, 1, ] wdg=1 %R=0.567 wdg=2 %R=0.567 %imag=0.5 %loadloss=1.134 %noloadloss=0.181 Xhl=1.965
New "Transformer.05410_g2100ff6200" phases=3 buses=[n292242.1.2.3, g2100ff6200_n292242_sec.1.2.3, ] conns=[wye, wye, ] kVs=[34.5, 0.48, ] kVAs=[300, 300, ] taps=[1, 1, ] wdg=1 %R=0.4090833 wdg=2 %R=0.4090833 %imag=0.5 %loadloss=0.8181667 %noloadloss=0.1525 Xhl=3.505
New "Transformer.05410_g2100ff2000" phases=3 buses=[n292242.1.2.3, g2100ff2000_n292242_sec.1.2.3, ] conns=[wye, wye, ] kVs=[34.5, 0.48, ] kVAs=[150, 150, ] taps=[1, 1, ] wdg=1 %R=0.4578333 wdg=2 %R=0.4578333 %imag=0.5 %loadloss=0.9156667 %noloadloss=0.1546667 Xhl=2.9
New "Transformer.05410_g2100fe2600" phases=3 buses=[n292234.1.2.3, g2100fe2600_n292234_sec.1.2.3, ] conns=[wye, wye, ] kVs=[34.5, 0.48, ] kVAs=[300, 300, ] taps=[1, 1, ] wdg=1 %R=0.4090833 wdg=2 %R=0.4090833 %imag=0.5 %loadloss=0.8181667 %noloadloss=0.1525 Xhl=3.505
New "Transformer.05410_g2100ee8600" phases=1 buses=[n1311915.1, g2100ee8600_n1311915_sec.1, ] conns=[wye, wye, ] kVs=[19.91858, 0.24, ] kVAs=[25, 25, ] taps=[1, 1, ] wdg=1 %R=0.633 wdg=2 %R=0.633 %imag=0.5 %loadloss=1.266 %noloadloss=0.248 Xhl=1.835
New "Transformer.05410_g2100gf9000" phases=1 buses=[n292246.1, g2100gf9000_n292246_sec.1, ] conns=[wye, wye, ] kVs=[19.91858, 0.24, ] kVAs=[15, 15, ] taps=[1, 1, ] wdg=1 %R=0.7466667 wdg=2 %R=0.7466667 %imag=0.5 %loadloss=1.493333 %noloadloss=0.2733333 Xhl=2.18
New "Transformer.05410_g2100he3000" phases=3 buses=[n292212.1.2.3, g2100he3000_n292212_sec.1.2.3, ] conns=[wye, wye, ] kVs=[34.5, 0.48, ] kVAs=[75, 75, ] taps=[1, 1, ] wdg=1 %R=0.658 wdg=2 %R=0.658 %imag=0.5 %loadloss=1.316 %noloadloss=0.198 Xhl=1.745
New "Transformer.05410_g2100he5100" phases=1 buses=[n292209.3, g2100he5100_n292209_sec.3, ] conns=[wye, wye, ] kVs=[19.91858, 0.24, ] kVAs=[25, 25, ] taps=[1, 1, ] wdg=1 %R=0.658 wdg=2 %R=0.658 %imag=0.5 %loadloss=1.316 %noloadloss=0.198 Xhl=1.745
New "Transformer.05410_g2100he0400" phases=3 buses=[n292223.1.2.3, g2100he0400_n292223_sec.1.2.3, ] conns=[wye, wye, ] kVs=[34.5, 0.48, ] kVAs=[150, 150, ] taps=[1, 1, ] wdg=1 %R=0.4578333 wdg=2 %R=0.4578333 %imag=0.5 %loadloss=0.9156667 %noloadloss=0.1546667 Xhl=2.9
New "Transformer.05410_g2100he1900" phases=3 buses=[n292218.1.2.3, g2100he1900_n292218_sec.1.2.3, ] conns=[wye, wye, ] kVs=[34.5, 0.48, ] kVAs=[300, 300, ] taps=[1, 1, ] wdg=1 %R=0.4090833 wdg=2 %R=0.4090833 %imag=0.5 %loadloss=0.8181667 %noloadloss=0.1525 Xhl=3.505
New "Transformer.05410_g2100fe5400" phases=3 buses=[n292228.1.2.3, g2100fe5400_n292228_sec.1.2.3, ] conns=[wye, wye, ] kVs=[34.5, 0.48, ] kVAs=[150, 150, ] taps=[1, 1, ] wdg=1 %R=0.4578333 wdg=2 %R=0.4578333 %imag=0.5 %loadloss=0.9156667 %noloadloss=0.1546667 Xhl=2.9
New "Transformer.05410_g2100af1300" phases=1 buses=[n292244.3, g2100af1300_n292244_sec.3, ] conns=[wye, wye, ] kVs=[19.91858, 0.24, ] kVAs=[15, 15, ] taps=[1, 1, ] wdg=1 %R=0.7466667 wdg=2 %R=0.7466667 %imag=0.5 %loadloss=1.493333 %noloadloss=0.2733333 Xhl=2.18
New "Transformer.05410_g2100gf8600" phases=3 buses=[n292253.1.2.3, g2100gf8600_n292253_sec.1.2.3, ] conns=[wye, wye, ] kVs=[34.5, 0.48, ] kVAs=[75, 75, ] taps=[1, 1, ] wdg=1 %R=0.658 wdg=2 %R=0.658 %imag=0.5 %loadloss=1.316 %noloadloss=0.198 Xhl=1.745
New "Transformer.05410_g2100gf8700" phases=1 buses=[n292256.1, g2100gf8700_n292256_sec.1, ] conns=[wye, wye, ] kVs=[19.91858, 0.24, ] kVAs=[25, 25, ] taps=[1, 1, ] wdg=1 %R=0.658 wdg=2 %R=0.658 %imag=0.5 %loadloss=1.316 %noloadloss=0.198 Xhl=1.745
New "Transformer.05410_g2100gg7300" phases=1 buses=[n292303.3, g2100gg7300_n292303_sec.3, ] conns=[wye, wye, ] kVs=[19.91858, 0.24, ] kVAs=[15, 15, ] taps=[1, 1, ] wdg=1 %R=0.7466667 wdg=2 %R=0.7466667 %imag=0.5 %loadloss=1.493333 %noloadloss=0.2733333 Xhl=2.18
New "Transformer.05410_g2100gh2300" phases=1 buses=[n292309.3, g2100gh2300_n292309_sec.3, ] conns=[wye, wye, ] kVs=[19.91858, 0.24, ] kVAs=[15, 15, ] taps=[1, 1, ] wdg=1 %R=0.7466667 wdg=2 %R=0.7466667 %imag=0.5 %loadloss=1.493333 %noloadloss=0.2733333 Xhl=2.18
New "Transformer.05410_g2100fi8100" phases=3 buses=[n292302.1.2.3, g2100fi8100_n292302_sec.1.2.3, ] conns=[wye, wye, ] kVs=[34.5, 0.48, ] kVAs=[300, 300, ] taps=[1, 1, ] wdg=1 %R=0.4090833 wdg=2 %R=0.4090833 %imag=0.5 %loadloss=0.8181667 %noloadloss=0.1525 Xhl=3.505
New "Transformer.05410_g2100fh3200" phases=3 buses=[n292302.1.2.3, g2100fh3200_n292302_sec.1.2.3, ] conns=[wye, wye, ] kVs=[34.5, 0.48, ] kVAs=[300, 300, ] taps=[1, 1, ] wdg=1 %R=0.4090833 wdg=2 %R=0.4090833 %imag=0.5 %loadloss=0.8181667 %noloadloss=0.1525 Xhl=3.505
New "Transformer.05410_g2100eg9700" phases=3 buses=[n292283.1.2.3, g2100eg9700_n292283_sec.1.2.3, ] conns=[wye, wye, ] kVs=[34.5, 0.48, ] kVAs=[150, 150, ] taps=[1, 1, ] wdg=1 %R=0.4578333 wdg=2 %R=0.4578333 %imag=0.5 %loadloss=0.9156667 %noloadloss=0.1546667 Xhl=2.9
New "Transformer.05410_g2100gi2700" phases=1 buses=[n292330.3, g2100gi2700_n292330_sec.3, ] conns=[wye, wye, ] kVs=[19.91858, 0.24, ] kVAs=[25, 25, ] taps=[1, 1, ] wdg=1 %R=0.658 wdg=2 %R=0.658 %imag=0.5 %loadloss=1.316 %noloadloss=0.198 Xhl=1.745
New "Transformer.05410_g2100gj2300" phases=3 buses=[n292354.1.2.3, g2100gj2300_n292354_sec.1.2.3, ] conns=[wye, wye, ] kVs=[34.5, 0.48, ] kVAs=[300, 300, ] taps=[1, 1, ] wdg=1 %R=0.4090833 wdg=2 %R=0.4090833 %imag=0.5 %loadloss=0.8181667 %noloadloss=0.1525 Xhl=3.505
New "Transformer.05410_g2100gj9100" phases=3 buses=[n292332.1.2.3, g2100gj9100_n292332_sec.1.2.3, ] conns=[wye, wye, ] kVs=[34.5, 0.48, ] kVAs=[150, 150, ] taps=[1, 1, ] wdg=1 %R=0.4578333 wdg=2 %R=0.4578333 %imag=0.5 %loadloss=0.9156667 %noloadloss=0.1546667 Xhl=2.9
New "Transformer.05410_g2100gi5400" phases=3 buses=[n292325.1.2.3, g2100gi5400_n292325_sec.1.2.3, ] conns=[wye, wye, ] kVs=[34.5, 0.48, ] kVAs=[150, 150, ] taps=[1, 1, ] wdg=1 %R=0.4578333 wdg=2 %R=0.4578333 %imag=0.5 %loadloss=0.9156667 %noloadloss=0.1546667 Xhl=2.9
New "Transformer.05410_g2100jl9000" phases=3 buses=[n292352.1.2.3, g2100jl9000_n292352_sec.1.2.3, ] conns=[wye, wye, ] kVs=[34.5, 0.48, ] kVAs=[750, 750, ] taps=[1, 1, ] wdg=1 %R=0.353 wdg=2 %R=0.353 %imag=0.5 %loadloss=0.706 %noloadloss=0.1492 Xhl=5.27
New "Transformer.05410_g2100jj1000" phases=3 buses=[n292352.1.2.3, g2100jj1000_n292352_sec.1.2.3, ] conns=[wye, wye, ] kVs=[34.5, 0.48, ] kVAs=[150, 150, ] taps=[1, 1, ] wdg=1 %R=0.4578333 wdg=2 %R=0.4578333 %imag=0.5 %loadloss=0.9156667 %noloadloss=0.1546667 Xhl=2.9
New "Transformer.05410_g2100ik6900" phases=3 buses=[n292403.1.2.3, g2100ik6900_n292403_sec.1.2.3, ] conns=[wye, wye, ] kVs=[34.5, 0.48, ] kVAs=[300, 300, ] taps=[1, 1, ] wdg=1 %R=0.4090833 wdg=2 %R=0.4090833 %imag=0.5 %loadloss=0.8181667 %noloadloss=0.1525 Xhl=3.505
New "Transformer.05410_g2100il4000" phases=3 buses=[n292400.1.2.3, g2100il4000_n292400_sec.1.2.3, ] conns=[wye, wye, ] kVs=[34.5, 0.48, ] kVAs=[500, 500, ] taps=[1, 1, ] wdg=1 %R=0.3866 wdg=2 %R=0.3866 %imag=0.5 %loadloss=0.7732 %noloadloss=0.1563 Xhl=3.675
New "Transformer.05410_g2100ji1800" phases=1 buses=[n292338.1, g2100ji1800_n292338_sec.1, ] conns=[wye, wye, ] kVs=[19.91858, 0.24, ] kVAs=[25, 25, ] taps=[1, 1, ] wdg=1 %R=0.633 wdg=2 %R=0.633 %imag=0.5 %loadloss=1.266 %noloadloss=0.248 Xhl=1.835
New "Transformer.05410_g2100hi8200" phases=3 buses=[n292329.1.2.3, g2100hi8200_n292329_sec.1.2.3, ] conns=[wye, wye, ] kVs=[34.5, 0.48, ] kVAs=[300, 300, ] taps=[1, 1, ] wdg=1 %R=0.4090833 wdg=2 %R=0.4090833 %imag=0.5 %loadloss=0.8181667 %noloadloss=0.1525 Xhl=3.505
New "Transformer.05410_g2100gj2600" phases=3 buses=[n292359.1.2.3, g2100gj2600_n292359_sec.1.2.3, ] conns=[wye, wye, ] kVs=[34.5, 0.48, ] kVAs=[150, 150, ] taps=[1, 1, ] wdg=1 %R=0.4578333 wdg=2 %R=0.4578333 %imag=0.5 %loadloss=0.9156667 %noloadloss=0.1546667 Xhl=2.9
New "Transformer.05410_g2100gj1600" phases=1 buses=[n292364.1, g2100gj1600_n292364_sec.1, ] conns=[wye, wye, ] kVs=[19.91858, 0.24, ] kVAs=[100, 100, ] taps=[1, 1, ] wdg=1 %R=0.67875 wdg=2 %R=0.67875 %imag=0.5 %loadloss=1.3575 %noloadloss=0.131 Xhl=3.29
New "Transformer.05410_g2100fj3800" phases=3 buses=[n292380.1.2.3, g2100fj3800_n292380_sec.1.2.3, ] conns=[wye, wye, ] kVs=[34.5, 0.48, ] kVAs=[500, 500, ] taps=[1, 1, ] wdg=1 %R=0.3866 wdg=2 %R=0.3866 %imag=0.5 %loadloss=0.7732 %noloadloss=0.1563 Xhl=3.675
New "Transformer.05410_g2100fj4400" phases=3 buses=[n292396.1.2.3, g2100fj4400_n292396_sec.1.2.3, ] conns=[wye, wye, ] kVs=[34.5, 0.48, ] kVAs=[150, 150, ] taps=[1, 1, ] wdg=1 %R=0.4578333 wdg=2 %R=0.4578333 %imag=0.5 %loadloss=0.9156667 %noloadloss=0.1546667 Xhl=2.9
New "Transformer.05410_g2100fl1200" phases=3 buses=[n292405.1.2.3, g2100fl1200_n292405_sec.1.2.3, ] conns=[wye, wye, ] kVs=[34.5, 0.48, ] kVAs=[150, 150, ] taps=[1, 1, ] wdg=1 %R=0.4578333 wdg=2 %R=0.4578333 %imag=0.5 %loadloss=0.9156667 %noloadloss=0.1546667 Xhl=2.9
New "Transformer.05410_g2100fk9800" phases=1 buses=[n292385.1, g2100fk9800_n292385_sec.1, ] conns=[wye, wye, ] kVs=[19.91858, 0.24, ] kVAs=[167, 167, ] taps=[1, 1, ] wdg=1 %R=0.4167665 wdg=2 %R=0.4167665 %imag=0.5 %loadloss=0.8335329 %noloadloss=0.161976 Xhl=2.355
New "Transformer.05410_g2100gk6700" phases=3 buses=[n292395.1.2.3, g2100gk6700_n292395_sec.1.2.3, ] conns=[wye, wye, ] kVs=[34.5, 0.48, ] kVAs=[150, 150, ] taps=[1, 1, ] wdg=1 %R=0.567 wdg=2 %R=0.567 %imag=0.5 %loadloss=1.134 %noloadloss=0.181 Xhl=1.965
New "Transformer.05410_g2100gk5700" phases=3 buses=[n292395.1.2.3, g2100gk5700_n292395_sec.1.2.3, ] conns=[wye, wye, ] kVs=[34.5, 0.48, ] kVAs=[75, 75, ] taps=[1, 1, ] wdg=1 %R=0.658 wdg=2 %R=0.658 %imag=0.5 %loadloss=1.316 %noloadloss=0.198 Xhl=1.745
New "Transformer.05410_g2100gk8000" phases=1 buses=[n292386.1, g2100gk8000_n292386_sec.1, ] conns=[wye, wye, ] kVs=[19.91858, 0.24, ] kVAs=[50, 50, ] taps=[1, 1, ] wdg=1 %R=0.567 wdg=2 %R=0.567 %imag=0.5 %loadloss=1.134 %noloadloss=0.181 Xhl=1.965
New "Transformer.05410_g2100gk8200" phases=3 buses=[n292379.1.2.3, g2100gk8200_n292379_sec.1.2.3, ] conns=[wye, wye, ] kVs=[34.5, 0.48, ] kVAs=[150, 150, ] taps=[1, 1, ] wdg=1 %R=0.567 wdg=2 %R=0.567 %imag=0.5 %loadloss=1.134 %noloadloss=0.181 Xhl=1.965
New "Transformer.05410_g2100gj9500" phases=3 buses=[n292365.1.2.3, g2100gj9500_n292365_sec.1.2.3, ] conns=[wye, wye, ] kVs=[34.5, 0.48, ] kVAs=[500, 500, ] taps=[1, 1, ] wdg=1 %R=0.3866 wdg=2 %R=0.3866 %imag=0.5 %loadloss=0.7732 %noloadloss=0.1563 Xhl=3.675
New "Transformer.05410_g2100gj8900" phases=1 buses=[n292370.2, g2100gj8900_n292370_sec.2, ] conns=[wye, wye, ] kVs=[19.91858, 0.24, ] kVAs=[50, 50, ] taps=[1, 1, ] wdg=1 %R=0.567 wdg=2 %R=0.567 %imag=0.5 %loadloss=1.134 %noloadloss=0.181 Xhl=1.965
New "Transformer.05410_g2100fk6600" phases=1 buses=[n292401.1, g2100fk6600_n292401_sec.1, ] conns=[wye, wye, ] kVs=[19.91858, 0.24, ] kVAs=[15, 15, ] taps=[1, 1, ] wdg=1 %R=0.7466667 wdg=2 %R=0.7466667 %imag=0.5 %loadloss=1.493333 %noloadloss=0.2733333 Xhl=2.18
New "Transformer.05410_g2100fl6300" phases=1 buses=[n292402.3, g2100fl6300_n292402_sec.3, ] conns=[wye, wye, ] kVs=[19.91858, 0.24, ] kVAs=[10, 10, ] taps=[1, 1, ] wdg=1 %R=0.7 wdg=2 %R=0.7 %imag=0.5 %loadloss=1.4 %noloadloss=0.325 Xhl=1.575
New "Transformer.05410_g2100gl2400" phases=3 buses=[n292406.1.2.3, g2100gl2400_n292406_sec.1.2.3, ] conns=[wye, wye, ] kVs=[34.5, 0.48, ] kVAs=[150, 150, ] taps=[1, 1, ] wdg=1 %R=0.4578333 wdg=2 %R=0.4578333 %imag=0.5 %loadloss=0.9156667 %noloadloss=0.1546667 Xhl=2.9
New "Transformer.05410_g2100gm9700" phases=1 buses=[n292423.3, g2100gm9700_n292423_sec.3, ] conns=[wye, wye, ] kVs=[19.91858, 0.24, ] kVAs=[250, 250, ] taps=[1, 1, ] wdg=1 %R=0.2325 wdg=2 %R=0.2325 %imag=0.5 %loadloss=0.465 %noloadloss=0.1322 Xhl=3
New "Transformer.05410_g2100hn5600" phases=1 buses=[n292453.3, g2100hn5600_n292453_sec.3, ] conns=[wye, wye, ] kVs=[19.91858, 0.24, ] kVAs=[167, 167, ] taps=[1, 1, ] wdg=1 %R=0.4167665 wdg=2 %R=0.4167665 %imag=0.5 %loadloss=0.8335329 %noloadloss=0.161976 Xhl=2.355
New "Transformer.05410_g2100in2700" phases=1 buses=[n292475.3, g2100in2700_n292475_sec.3, ] conns=[wye, wye, ] kVs=[19.91858, 0.24, ] kVAs=[167, 167, ] taps=[1, 1, ] wdg=1 %R=0.4167665 wdg=2 %R=0.4167665 %imag=0.5 %loadloss=0.8335329 %noloadloss=0.161976 Xhl=2.355
New "Transformer.05410_g2100hm9900" phases=1 buses=[n292433.3, g2100hm9900_n292433_sec.3, ] conns=[wye, wye, ] kVs=[19.91858, 0.24, ] kVAs=[250, 250, ] taps=[1, 1, ] wdg=1 %R=0.2325 wdg=2 %R=0.2325 %imag=0.5 %loadloss=0.465 %noloadloss=0.1322 Xhl=3
New "Transformer.05410_g2100in7700" phases=1 buses=[n292438.3, g2100in7700_n292438_sec.3, ] conns=[wye, wye, ] kVs=[19.91858, 0.24, ] kVAs=[167, 167, ] taps=[1, 1, ] wdg=1 %R=0.4167665 wdg=2 %R=0.4167665 %imag=0.5 %loadloss=0.8335329 %noloadloss=0.161976 Xhl=2.355
New "Transformer.05410_g2100im6700" phases=1 buses=[n292430.3, g2100im6700_n292430_sec.3, ] conns=[wye, wye, ] kVs=[19.91858, 0.24, ] kVAs=[167, 167, ] taps=[1, 1, ] wdg=1 %R=0.4167665 wdg=2 %R=0.4167665 %imag=0.5 %loadloss=0.8335329 %noloadloss=0.161976 Xhl=2.355
New "Transformer.05410_g2100il1000" phases=1 buses=[n292412.3, g2100il1000_n292412_sec.3, ] conns=[wye, wye, ] kVs=[19.91858, 0.24, ] kVAs=[167, 167, ] taps=[1, 1, ] wdg=1 %R=0.4167665 wdg=2 %R=0.4167665 %imag=0.5 %loadloss=0.8335329 %noloadloss=0.161976 Xhl=2.355
New "Transformer.05410_g2100hm3200" phases=1 buses=[n292420.3, g2100hm3200_n292420_sec.3, ] conns=[wye, wye, ] kVs=[19.91858, 0.24, ] kVAs=[100, 100, ] taps=[1, 1, ] wdg=1 %R=0.67875 wdg=2 %R=0.67875 %imag=0.5 %loadloss=1.3575 %noloadloss=0.131 Xhl=3.29
New "Transformer.05410_g2100fl3500" phases=1 buses=[n292410.2, g2100fl3500_n292410_sec.2, ] conns=[wye, wye, ] kVs=[19.91858, 0.24, ] kVAs=[50, 50, ] taps=[1, 1, ] wdg=1 %R=0.567 wdg=2 %R=0.567 %imag=0.5 %loadloss=1.134 %noloadloss=0.181 Xhl=1.965
New "Transformer.05410_g2100fm1500" phases=1 buses=[n292431.3, g2100fm1500_n292431_sec.3, ] conns=[wye, wye, ] kVs=[19.91858, 0.24, ] kVAs=[15, 15, ] taps=[1, 1, ] wdg=1 %R=0.7466667 wdg=2 %R=0.7466667 %imag=0.5 %loadloss=1.493333 %noloadloss=0.2733333 Xhl=2.18
New "Transformer.05410_g2100gm6700" phases=3 buses=[n292446.1.2.3, g2100gm6700_n292446_sec.1.2.3, ] conns=[wye, wye, ] kVs=[34.5, 0.48, ] kVAs=[300, 300, ] taps=[1, 1, ] wdg=1 %R=0.4090833 wdg=2 %R=0.4090833 %imag=0.5 %loadloss=0.8181667 %noloadloss=0.1525 Xhl=3.505
New "Transformer.05410_g2100gm5300" phases=3 buses=[n292446.1.2.3, g2100gm5300_n292446_sec.1.2.3, ] conns=[wye, wye, ] kVs=[34.5, 0.48, ] kVAs=[150, 150, ] taps=[1, 1, ] wdg=1 %R=0.4578333 wdg=2 %R=0.4578333 %imag=0.5 %loadloss=0.9156667 %noloadloss=0.1546667 Xhl=2.9
New "Transformer.05410_g2100gm1700" phases=3 buses=[n292446.1.2.3, g2100gm1700_n292446_sec.1.2.3, ] conns=[wye, wye, ] kVs=[34.5, 0.48, ] kVAs=[150, 150, ] taps=[1, 1, ] wdg=1 %R=0.4578333 wdg=2 %R=0.4578333 %imag=0.5 %loadloss=0.9156667 %noloadloss=0.1546667 Xhl=2.9
New "Transformer.05410_g2100gn7600" phases=1 buses=[n292474.1, g2100gn7600_n292474_sec.1, ] conns=[wye, wye, ] kVs=[19.91858, 0.24, ] kVAs=[50, 50, ] taps=[1, 1, ] wdg=1 %R=0.4385 wdg=2 %R=0.4385 %imag=0.5 %loadloss=0.877 %noloadloss=0.181 Xhl=2.025
New "Transformer.05410_g2100gn7300" phases=1 buses=[n292464.1, g2100gn7300_n292464_sec.1, ] conns=[wye, wye, ] kVs=[19.91858, 0.24, ] kVAs=[50, 50, ] taps=[1, 1, ] wdg=1 %R=0.4385 wdg=2 %R=0.4385 %imag=0.5 %loadloss=0.877 %noloadloss=0.181 Xhl=2.025
New "Transformer.05410_g2100gn4300" phases=1 buses=[n292461.1, g2100gn4300_n292461_sec.1, ] conns=[wye, wye, ] kVs=[19.91858, 0.24, ] kVAs=[100, 100, ] taps=[1, 1, ] wdg=1 %R=0.67875 wdg=2 %R=0.67875 %imag=0.5 %loadloss=1.3575 %noloadloss=0.131 Xhl=3.29
New "Transformer.05410_g2100gn4600" phases=1 buses=[n292459.1, g2100gn4600_n292459_sec.1, ] conns=[wye, wye, ] kVs=[19.91858, 0.24, ] kVAs=[100, 100, ] taps=[1, 1, ] wdg=1 %R=0.67875 wdg=2 %R=0.67875 %imag=0.5 %loadloss=1.3575 %noloadloss=0.131 Xhl=3.29
New "Transformer.05410_g2100gn1400" phases=1 buses=[n292471.1, g2100gn1400_n292471_sec.1, ] conns=[wye, wye, ] kVs=[19.91858, 0.24, ] kVAs=[100, 100, ] taps=[1, 1, ] wdg=1 %R=0.67875 wdg=2 %R=0.67875 %imag=0.5 %loadloss=1.3575 %noloadloss=0.131 Xhl=3.29
New "Transformer.05410_g2100gn0400" phases=1 buses=[n292471.1, g2100gn0400_n292471_sec.1, ] conns=[wye, wye, ] kVs=[19.91858, 0.24, ] kVAs=[167, 167, ] taps=[1, 1, ] wdg=1 %R=0.4167665 wdg=2 %R=0.4167665 %imag=0.5 %loadloss=0.8335329 %noloadloss=0.161976 Xhl=2.355