New "Line.sw7" phases=3 Switch=True bus1=na.1.2.3 bus2=nb.1.2.3
