New "LoadShape.default" npts=24 interval=1 mult=[ 0.677 0.6256 0.6087 0.5833 0.58028 0.6025 0.657 0.7477 0.832 0.88 0.94 0.989 0.985 0.98 0.9898 0.999 1 0.958 0.936 0.913 0.876 0.876 0.828 0.756]
New "LoadShape.myirrad" npts=1440 minterval=1 mult=[ 0.005 0.005 0.005 0.005 0.005 0.005 0.005 0.005 0.005 0.005 0.005 0.005 0.005 0.005 0.005 0.005 0.005 0.005 0.005 0.005 0.005 0.005 0.005 0.005 0.005 0.005 0.005 0.005 0.005 0.005 0.005 0.005 0.005 0.005 0.005 0.005 0.005 0.005 0.005 0.005 0.005 0.005 0.005 0.005 0.005 0.005 0.005 0.005 0.005 0.005 0.005 0.005 0.005 0.005 0.005 0.005 0.005 0.005 0.005 0.005 0.005 0.005 0.005 0.005 0.005 0.005 0.005 0.005 0.005 0.005 0.005 0.005 0.005 0.005 0.005 0.005 0.005 0.005 0.005 0.005 0.005 0.005 0.005 0.005 0.005 0.005 0.005 0.005 0.005 0.005 0.005 0.005 0.005 0.005 0.005 0.005 0.005 0.005 0.005 0.005 0.005 0.005 0.005 0.005 0.005 0.005 0.005 0.005 0.005 0.005 0.005 0.005 0.005 0.005 0.005 0.005 0.005 0.005 0.005 0.005 0.005 0.005 0.005 0.005 0.005 0.005 0.005 0.005 0.005 0.005 0.005 0.005 0.005 0.005 0.005 0.005 0.005 0.005 0.005 0.005 0.005 0.005 0.005 0.005 0.005 0.005 0.005 0.005 0.005 0.005 0.005 0.005 0.005 0.005 0.005 0.005 0.005 0.005 0.005 0.005 0.005 0.005 0.005 0.005 0.005 0.005 0.005 0.005 0.005 0.005 0.005 0.005 0.005 0.005 0.005 0.005 0.005 0.005 0.005 0.005 0.005 0.005 0.005 0.005 0.005 0.005 0.005 0.005 0.005 0.005 0.005 0.005 0.005 0.005 0.005 0.005 0.005 0.005 0.005 0.005 0.005 0.005 0.005 0.005 0.005 0.005 0.005 0.005 0.005 0.005 0.005 0.005 0.005 0.005 0.005 0.005 0.005 0.005 0.005 0.005 0.005 0.005 0.005 0.005 0.005 0.005 0.005 0.005 0.005 0.005 0.005 0.005 0.005 0.005 0.005 0.005 0.005 0.005 0.005 0.005 0.005 0.005 0.005 0.005 0.005 0.005 0.005 0.005 0.005 0.005 0.005 0.005 0.005 0.005 0.005 0.005 0.005 0.005 0.005 0.005 0.005 0.005 0.005 0.005 0.005 0.005 0.005 0.005 0.005 0.005 0.005 0.005 0.005 0.005 0.005 0.005 0.005 0.005 0.005 0.005 0.005 0.005 0.005 0.005 0.005 0.005 0.005 0.005 0.005 0.005 0.005 0.005 0.005 0.005 0.005 0.005 0.005 0.005 0.005 0.005 0.005 0.005 0.005 0.005 0.005 0.005 0.005 0.005 0.005 0.005 0.005 0.005 0.005 0.005 0.005 0.005 0.005 0.005 0.005 0.005 0.005 0.005 0.005 0.005 0.005 0.005 0.005 0.005 0.005 0.005 0.005 0.005 0.005 0.005 0.005 0.005 0.005 0.005 0.006 0.008 0.011 0.015 0.019 0.023 0.025 0.026 0.027 0.028 0.028 0.028 0.028 0.029 0.03 0.03 0.031 0.032 0.032 0.032 0.032 0.033 0.034 0.034 0.034 0.036 0.037 0.039 0.041 0.043 0.046 0.05 0.053 0.057 0.06 0.062 0.064 0.066 0.067 0.067 0.067 0.065 0.065 0.066 0.067 0.067 0.069 0.069 0.071 0.075 0.082 0.088 0.075 0.066 0.065 0.064 0.066 0.076 0.088 0.091 0.087 0.08 0.077 0.081 0.086 0.091 0.09 0.106 0.145 0.174 0.198 0.189 0.186 0.172 0.181 0.188 0.205 0.2 0.2 0.215 0.23 0.24 0.252 0.254 0.257 0.241 0.218 0.184 0.197 0.229 0.252 0.242 0.244 0.258 0.231 0.218 0.24 0.261 0.269 0.273 0.254 0.256 0.271 0.28 0.289 0.28 0.264 0.28 0.285 0.308 0.313 0.31 0.271 0.303 0.309 0.3 0.281 0.278 0.245 0.258 0.289 0.314 0.324 0.325 0.324 0.326 0.334 0.337 0.342 0.345 0.349 0.356 0.361 0.365 0.37 0.375 0.38 0.385 0.389 0.394 0.403 0.415 0.428 0.44 0.406 0.404 0.443 0.385 0.392 0.394 0.403 0.312 0.213 0.226 0.369 0.488 0.49 0.489 0.48 0.487 0.501 0.401 0.207 0.214 0.235 0.339 0.455 0.5 0.434 0.319 0.391 0.428 0.54 0.543 0.549 0.562 0.567 0.575 0.587 0.603 0.599 0.607 0.601 0.581 0.601 0.594 0.623 0.532 0.652 0.637 0.584 0.311 0.334 0.315 0.381 0.495 0.598 0.671 0.555 0.711 0.727 0.351 0.616 0.362 0.392 0.486 0.61 0.445 0.332 0.262 0.373 0.455 0.546 0.658 0.673 0.668 0.676 0.677 0.679 0.68 0.683 0.687 0.691 0.694 0.694 0.698 0.694 0.691 0.695 0.708 0.702 0.709 0.72 0.728 0.738 0.746 0.752 0.756 0.747 0.778 0.784 0.688 0.79 0.805 0.813 0.819 0.827 0.83 0.838 0.741 0.759 0.811 0.789 0.801 0.841 0.848 0.859 0.874 0.89 0.911 0.937 0.968 0.928 0.792 0.537 0.312 0.263 0.289 0.427 0.589 0.689 0.494 0.513 0.8 0.914 0.896 0.82 0.757 0.855 0.853 0.83 0.833 0.848 0.865 0.873 0.887 0.9 0.904 0.904 0.908 0.9 0.758 0.995 0.985 1.001 1.077 0.701 0.674 0.622 0.493 0.403 0.393 0.371 0.4 0.403 0.412 0.409 0.388 0.351 0.334 0.33 0.35 0.369 0.443 0.603 0.691 0.906 1.012 0.784 0.672 0.568 0.616 0.564 1.006 0.661 0.896 0.834 0.471 0.382 0.456 0.433 0.548 0.536 0.384 0.299 0.292 0.322 0.399 0.47 0.466 0.415 0.408 0.346 0.284 0.316 0.46 0.511 0.774 0.954 1.027 1.147 1.121 1.152 0.87 0.797 1.131 1.142 1.125 1.098 1.13 1.132 1.127 1.09 1.104 1.124 1.032 0.608 1.074 1.112 1.116 1.092 1.084 1.067 1.055 1.049 1.05 1.053 1.057 1.063 1.075 1.087 1.097 1.092 0.979 0.539 0.259 0.594 1.038 1.106 1.07 0.906 1.048 1.041 1.062 1.059 1.053 1.043 1.04 1.039 1.042 1.048 1.053 1.059 1.06 1.067 1.077 1.086 1.088 1.102 1.095 1.086 0.978 1.106 1.012 0.435 0.375 0.572 1.131 1.235 1.21 1.123 0.79 1.265 1.302 1.02 0.683 0.879 0.501 0.537 0.373 0.371 0.378 0.379 0.38 0.383 0.409 0.63 1.013 0.979 0.833 0.6 1.123 1.146 1.107 1.133 1.125 1.135 1.097 1.083 0.968 0.821 0.715 0.639 0.534 0.406 0.425 0.321 0.431 0.453 0.375 0.402 0.586 0.705 0.853 0.854 0.952 1.032 1.012 0.929 0.552 0.307 0.522 0.312 0.297 0.292 0.283 0.304 0.373 0.558 0.571 0.73 0.641 0.249 0.233 0.256 0.214 0.384 0.429 0.636 0.368 0.645 0.709 0.995 0.969 0.962 0.968 0.974 0.987 0.925 0.82 0.684 0.367 0.684 0.516 0.382 0.477 0.434 0.654 1.005 0.601 0.425 0.631 0.64 0.727 0.901 0.916 0.519 0.401 0.345 0.296 0.271 0.262 0.34 0.493 0.797 0.953 0.926 0.983 0.95 0.924 0.907 0.889 0.871 0.855 0.84 0.827 0.832 0.835 0.828 0.826 0.812 0.817 0.817 0.814 0.819 0.82 0.812 0.809 0.807 0.806 0.795 0.782 0.777 0.765 0.765 0.755 0.751 0.747 0.748 0.747 0.747 0.742 0.746 0.74 0.736 0.735 0.733 0.731 0.725 0.724 0.724 0.721 0.717 0.718 0.72 0.72 0.72 0.723 0.725 0.725 0.726 0.616 0.367 0.479 0.592 0.637 0.734 0.657 0.412 0.598 0.776 0.79 0.795 0.794 0.787 0.777 0.758 0.744 0.735 0.718 0.733 0.66 0.69 0.501 0.589 0.638 0.729 0.699 0.686 0.655 0.682 0.691 0.688 0.714 0.705 0.656 0.616 0.631 0.567 0.394 0.34 0.293 0.37 0.496 0.583 0.532 0.462 0.515 0.542 0.544 0.54 0.536 0.528 0.521 0.516 0.513 0.508 0.505 0.502 0.502 0.501 0.499 0.498 0.492 0.489 0.485 0.481 0.478 0.473 0.47 0.469 0.469 0.47 0.467 0.477 0.434 0.482 0.484 0.496 0.424 0.234 0.219 0.232 0.375 0.513 0.508 0.506 0.501 0.444 0.442 0.455 0.465 0.454 0.439 0.424 0.409 0.4 0.385 0.394 0.387 0.375 0.368 0.398 0.4 0.404 0.404 0.404 0.399 0.367 0.274 0.166 0.147 0.143 0.221 0.249 0.335 0.34 0.34 0.339 0.33 0.322 0.29 0.277 0.287 0.316 0.303 0.299 0.288 0.276 0.266 0.256 0.245 0.256 0.249 0.237 0.211 0.234 0.236 0.228 0.222 0.218 0.214 0.209 0.201 0.194 0.187 0.182 0.177 0.173 0.17 0.166 0.16 0.155 0.149 0.143 0.137 0.127 0.117 0.118 0.116 0.111 0.107 0.103 0.099 0.095 0.092 0.089 0.086 0.083 0.08 0.077 0.074 0.071 0.068 0.065 0.063 0.061 0.057 0.052 0.051 0.049 0.048 0.047 0.047 0.046 0.045 0.044 0.043 0.042 0.041 0.04 0.038 0.037 0.034 0.031 0.029 0.026 0.023 0.021 0.02 0.018 0.016 0.016 0.015 0.015 0.014 0.013 0.013 0.012 0.011 0.01 0.009 0.009 0.008 0.008 0.008 0.008 0.007 0.007 0.007 0.007 0.006 0.006 0.006 0.005 0.005 0.005 0.005 0.005 0.005 0.005 0.005 0.005 0.005 0.005 0.005 0.005 0.005 0.005 0.005 0.005 0.005 0.005 0.005 0.005 0.005 0.005 0.005 0.005 0.005 0.005 0.005 0.005 0.005 0.005 0.005 0.005 0.005 0.005 0.005 0.005 0.005 0.005 0.005 0.005 0.005 0.005 0.005 0.005 0.005 0.005 0.005 0.005 0.005 0.005 0.005 0.005 0.005 0.005 0.005 0.005 0.005 0.005 0.005 0.005 0.005 0.005 0.005 0.005 0.005 0.005 0.005 0.005 0.005 0.005 0.005 0.005 0.005 0.005 0.005 0.005 0.005 0.005 0.005 0.005 0.005 0.005 0.005 0.005 0.005 0.005 0.005 0.005 0.005 0.005 0.005 0.005 0.005 0.005 0.005 0.005 0.005 0.005 0.005 0.005 0.005 0.005 0.005 0.005 0.005 0.005 0.005 0.005 0.005 0.005 0.005 0.005 0.005 0.005 0.005 0.005 0.005 0.005 0.005 0.005 0.005 0.005 0.005 0.005 0.005 0.005 0.005 0.005 0.005 0.005 0.005 0.005 0.005 0.005 0.005 0.005 0.005 0.005 0.005 0.005 0.005 0.005 0.005 0.005 0.005 0.005 0.005 0.005 0.005 0.005 0.005 0.005 0.005 0.005 0.005 0.005 0.005 0.005 0.005 0.005 0.005 0.005 0.005 0.005 0.005 0.005 0.005 0.005 0.005 0.005 0.005 0.005 0.005 0.005 0.005 0.005 0.005 0.005 0.005 0.005 0.005 0.005 0.005 0.005 0.005 0.005 0.005 0.005 0.005 0.005 0.005 0.005 0.005 0.005 0.005 0.005 0.005 0.005 0.005 0.005 0.005 0.005 0.005 0.005 0.005 0.005 0.005 0.005 0.005 0.005 0.005 0.005 0.005 0.005 0.005 0.005 0.005 0.005 0.005 0.005 0.005 0.005 0.005 0.005 0.005 0.005 0.005 0.005 0.005 0.005 0.005 0.005 0.005 0.005 0.005 0.005 0.005 0.005 0.005 0.005 0.005 0.005 0.005 0.005 0.005 0.005 0.005 0.005 0.005 0.005 0.005 0.005 0.005 0.005 0.005 0.005 0.005 0.005 0.005 0.005 0.005 0.005 0.005 0.005 0.005 0.005 0.005 0.005 0.005 0.005 0.005 0.005 0.005 0.005 0.005 0.005 0.005 0.005 0.005 0.005 0.005 0.005 0.005 0.005 0.005 0.005 0.005 0.005 0.005 0.005 0.005 0.005 0.005 0.005 0.005 0.005 0.005]
