New "Line.sw8" phases=3 bus1=75.1.2.3 bus2=71.1.2.3 Switch=True
