New "Line.sw14" phases=3 bus1=11.1.2.3 bus2=20.1.2.3 Switch=True
