Clear
New Circuit.ieee8500


Redirect Vsource.dss
Redirect LineCode.DSS
Redirect XfmrCode.DSS
Redirect LoadShape.DSS
Redirect GrowthShape.DSS
Redirect TCC_Curve.DSS
Redirect Spectrum.DSS
Redirect em1\Branches.dss
Redirect em1\Transformers.dss
Redirect em1\Loads.dss
Redirect em1\Capacitors.dss
Redirect Transformer.DSS
Redirect Reactor.DSS
Redirect EnergyMeter.DSS
MakeBusList
Redirect BusVoltageBases.dss  ! set voltage bases
Buscoords buscoords.dss
